REMARK  Name = 
REMARK  9 active torsions:
REMARK  status: ('A' for Active; 'I' for Inactive)
REMARK    1  A    between atoms: C_1  and  C_2
REMARK    2  A    between atoms: C_2  and  C_4
REMARK    3  A    between atoms: C_6  and  O_7
REMARK    4  A    between atoms: O_7  and  C_8
REMARK    5  A    between atoms: C_8  and  C_9
REMARK    6  A    between atoms: C_9  and  N_10
REMARK    7  A    between atoms: C_11  and  C_12
REMARK    8  A    between atoms: C_14  and  C_15
REMARK    9  A    between atoms: C_16  and  C_17
REMARK                            x       y       z     vdW  Elec       q    Type
REMARK                         _______ _______ _______ _____ _____    ______ ____
ROOT
ATOM      1  C   UNL     1       0.153  -0.752  -0.109  0.00  0.00    +0.000 A 
ATOM      2  C   UNL     1       1.483  -0.492   0.215  0.00  0.00    +0.000 A 
ATOM      3  C   UNL     1       2.041   0.758   0.292  0.00  0.00    +0.000 A 
ATOM      4  C   UNL     1       1.182   1.838   0.018  0.00  0.00    +0.000 A 
ATOM      5  C   UNL     1       1.712   3.247   0.077  0.00  0.00    +0.000 C 
ATOM      6  C   UNL     1      -0.133   1.653  -0.304  0.00  0.00    +0.000 A 
ATOM      7  C   UNL     1      -0.638   0.339  -0.363  0.00  0.00    +0.000 A 
ENDROOT
BRANCH   7   8
ATOM      8  C   UNL     1      -2.074   0.275  -0.596  0.00  0.00    +0.000 C 
ATOM      9  C   UNL     1      -2.879  -0.164   0.352  0.00  0.00    +0.000 C 
ATOM     10  C   UNL     1      -2.358  -0.591   1.656  0.00  0.00    +0.000 C 
ATOM     11  C   UNL     1      -4.349  -0.289   0.264  0.00  0.00    +0.000 C 
ATOM     12  O   UNL     1      -4.934  -0.579   1.348  0.00  0.00    +0.000 OA
ATOM     13  C   UNL     1      -5.274  -0.133  -0.885  0.00  0.00    +0.000 C 
ATOM     14  O   UNL     1      -4.843   0.881  -1.762  0.00  0.00    +0.000 OA
ATOM     15  C   UNL     1      -3.648   1.028  -2.450  0.00  0.00    +0.000 C 
ATOM     16  C   UNL     1      -2.449   0.758  -1.924  0.00  0.00    +0.000 C 
ENDBRANCH   7   8
BRANCH   1  18
ATOM     17  C   UNL     1      -1.508  -2.656  -0.813  0.00  0.00    +0.000 C 
ATOM     18  C   UNL     1      -0.243  -2.131  -0.260  0.00  0.00    +0.000 C 
ATOM     19  O   UNL     1       0.584  -3.023   0.115  0.00  0.00    +0.000 OA
ENDBRANCH   1  18
BRANCH   3  20
ATOM     20  O   UNL     1       3.314   1.075   0.602  0.00  0.00    +0.000 OA
BRANCH  20  21
ATOM     21  C   UNL     1       4.443   0.363   0.911  0.00  0.00    +0.000 C 
BRANCH  21  22
ATOM     22  C   UNL     1       4.884  -0.494  -0.242  0.00  0.00    +0.000 C 
BRANCH  22  23
ATOM     23  N   UNL     1       6.082  -1.256   0.080  0.00  0.00    +0.000 NA
ATOM     24  H   UNL     1       6.007  -1.634   1.053  0.00  0.00    +0.000 HD
ATOM     25  H   UNL     1       6.897  -0.620  -0.012  0.00  0.00    +0.000 HD
ENDBRANCH  22  23
ENDBRANCH  21  22
ENDBRANCH  20  21
ENDBRANCH   3  20
TORSDOF 6
