REMARK  Name = 
REMARK  9 active torsions:
REMARK  status: ('A' for Active; 'I' for Inactive)
REMARK    1  A    between atoms: C_1  and  C_2
REMARK    2  A    between atoms: C_2  and  C_4
REMARK    3  A    between atoms: C_6  and  O_7
REMARK    4  A    between atoms: O_7  and  C_8
REMARK    5  A    between atoms: C_8  and  C_9
REMARK    6  A    between atoms: C_9  and  N_10
REMARK    7  A    between atoms: C_11  and  C_12
REMARK    8  A    between atoms: C_14  and  C_15
REMARK    9  A    between atoms: C_16  and  C_17
REMARK                            x       y       z     vdW  Elec       q    Type
REMARK                         _______ _______ _______ _____ _____    ______ ____
ROOT
ATOM      1  C   UNL     1      -0.419   0.843  -0.604  0.00  0.00    +0.000 A 
ATOM      2  C   UNL     1       0.944   0.997  -0.716  0.00  0.00    +0.000 A 
ATOM      3  C   UNL     1       1.849   0.041  -0.250  0.00  0.00    +0.000 A 
ATOM      4  C   UNL     1       1.393  -1.113   0.350  0.00  0.00    +0.000 A 
ATOM      5  C   UNL     1       2.318  -2.157   0.860  0.00  0.00    +0.000 C 
ATOM      6  C   UNL     1       0.032  -1.266   0.462  0.00  0.00    +0.000 A 
ATOM      7  C   UNL     1      -0.874  -0.307  -0.006  0.00  0.00    +0.000 A 
ENDROOT
BRANCH   7   8
ATOM      8  C   UNL     1      -2.279  -0.649   0.122  0.00  0.00    +0.000 C 
ATOM      9  C   UNL     1      -2.793  -0.922   1.304  0.00  0.00    +0.000 C 
ATOM     10  C   UNL     1      -1.940  -0.880   2.514  0.00  0.00    +0.000 C 
ATOM     11  C   UNL     1      -4.190  -1.288   1.642  0.00  0.00    +0.000 C 
ATOM     12  O   UNL     1      -4.512  -1.101   2.866  0.00  0.00    +0.000 OA
ATOM     13  C   UNL     1      -5.265  -1.841   0.752  0.00  0.00    +0.000 C 
ATOM     14  O   UNL     1      -5.345  -1.095  -0.452  0.00  0.00    +0.000 OA
ATOM     15  C   UNL     1      -4.319  -0.896  -1.391  0.00  0.00    +0.000 C 
ATOM     16  C   UNL     1      -3.035  -0.710  -1.147  0.00  0.00    +0.000 C 
ENDBRANCH   7   8
BRANCH   1  18
ATOM     17  C   UNL     1      -0.708   3.094  -1.739  0.00  0.00    +0.000 C 
ATOM     18  C   UNL     1      -1.304   1.895  -1.067  0.00  0.00    +0.000 C 
ATOM     19  O   UNL     1      -2.549   1.896  -0.956  0.00  0.00    +0.000 OA
ENDBRANCH   1  18
BRANCH   3  20
ATOM     20  O   UNL     1       3.216   0.207  -0.369  0.00  0.00    +0.000 OA
BRANCH  20  21
ATOM     21  C   UNL     1       3.869   1.302  -0.945  0.00  0.00    +0.000 C 
BRANCH  21  22
ATOM     22  C   UNL     1       5.378   1.189  -0.926  0.00  0.00    +0.000 C 
BRANCH  22  23
ATOM     23  N   UNL     1       5.880   1.082   0.432  0.00  0.00    +0.000 NA
ATOM     24  H   UNL     1       6.884   1.276   0.500  0.00  0.00    +0.000 HD
ATOM     25  H   UNL     1       5.767   0.066   0.698  0.00  0.00    +0.000 HD
ENDBRANCH  22  23
ENDBRANCH  21  22
ENDBRANCH  20  21
ENDBRANCH   3  20
TORSDOF 6
