REMARK  Name = 
REMARK  9 active torsions:
REMARK  status: ('A' for Active; 'I' for Inactive)
REMARK    1  A    between atoms: C_1  and  C_2
REMARK    2  A    between atoms: C_2  and  C_4
REMARK    3  A    between atoms: C_6  and  O_7
REMARK    4  A    between atoms: O_7  and  C_8
REMARK    5  A    between atoms: C_8  and  C_9
REMARK    6  A    between atoms: C_9  and  N_10
REMARK    7  A    between atoms: C_11  and  C_12
REMARK    8  A    between atoms: C_14  and  C_15
REMARK    9  A    between atoms: C_16  and  C_17
REMARK                            x       y       z     vdW  Elec       q    Type
REMARK                         _______ _______ _______ _____ _____    ______ ____
ROOT
ATOM      1  C   UNL     1    -nan(ind)-nan(ind)-nan(ind)  0.00  0.00    +0.000 A 
ATOM      2  C   UNL     1    -nan(ind)-nan(ind)-nan(ind)  0.00  0.00    +0.000 A 
ATOM      3  C   UNL     1    -nan(ind)-nan(ind)-nan(ind)  0.00  0.00    +0.000 A 
ATOM      4  C   UNL     1    -nan(ind)-nan(ind)-nan(ind)  0.00  0.00    +0.000 A 
ATOM      5  C   UNL     1    -nan(ind)-nan(ind)-nan(ind)  0.00  0.00    +0.000 C 
ATOM      6  C   UNL     1    -nan(ind)-nan(ind)-nan(ind)  0.00  0.00    +0.000 A 
ATOM      7  C   UNL     1    -nan(ind)-nan(ind)-nan(ind)  0.00  0.00    +0.000 A 
ENDROOT
BRANCH   7   8
ATOM      8  C   UNL     1    -nan(ind)-nan(ind)-nan(ind)  0.00  0.00    +0.000 C 
ATOM      9  C   UNL     1    -nan(ind)-nan(ind)-nan(ind)  0.00  0.00    +0.000 C 
ATOM     10  C   UNL     1    -nan(ind)-nan(ind)-nan(ind)  0.00  0.00    +0.000 C 
ATOM     11  C   UNL     1    -nan(ind)-nan(ind)-nan(ind)  0.00  0.00    +0.000 C 
ATOM     12  O   UNL     1    -nan(ind)-nan(ind)-nan(ind)  0.00  0.00    +0.000 OA
ATOM     13  C   UNL     1    -nan(ind)-nan(ind)-nan(ind)  0.00  0.00    +0.000 C 
ATOM     14  O   UNL     1    -nan(ind)-nan(ind)-nan(ind)  0.00  0.00    +0.000 OA
ATOM     15  C   UNL     1    -nan(ind)-nan(ind)-nan(ind)  0.00  0.00    +0.000 C 
ATOM     16  C   UNL     1    -nan(ind)-nan(ind)-nan(ind)  0.00  0.00    +0.000 C 
ENDBRANCH   7   8
BRANCH   1  18
ATOM     17  C   UNL     1    -nan(ind)-nan(ind)-nan(ind)  0.00  0.00    +0.000 C 
ATOM     18  C   UNL     1    -nan(ind)-nan(ind)-nan(ind)  0.00  0.00    +0.000 C 
ATOM     19  O   UNL     1    -nan(ind)-nan(ind)-nan(ind)  0.00  0.00    +0.000 OA
ENDBRANCH   1  18
BRANCH   3  20
ATOM     20  O   UNL     1    -nan(ind)-nan(ind)-nan(ind)  0.00  0.00    +0.000 OA
BRANCH  20  21
ATOM     21  C   UNL     1    -nan(ind)-nan(ind)-nan(ind)  0.00  0.00    +0.000 C 
BRANCH  21  22
ATOM     22  C   UNL     1    -nan(ind)-nan(ind)-nan(ind)  0.00  0.00    +0.000 C 
BRANCH  22  23
ATOM     23  N   UNL     1    -nan(ind)-nan(ind)-nan(ind)  0.00  0.00    +0.000 NA
ATOM     24  H   UNL     1    -nan(ind)-nan(ind)-nan(ind)  0.00  0.00    +0.000 HD
ATOM     25  H   UNL     1    -nan(ind)-nan(ind)-nan(ind)  0.00  0.00    +0.000 HD
ENDBRANCH  22  23
ENDBRANCH  21  22
ENDBRANCH  20  21
ENDBRANCH   3  20
TORSDOF 6
