MODEL 1
REMARK VINA RESULT:    -6.972      0.000      0.000
REMARK INTER + INTRA:          -8.352
REMARK INTER:                  -9.214
REMARK INTRA:                   0.862
REMARK UNBOUND:                 0.862
REMARK  Name = 
REMARK  9 active torsions:
REMARK  status: ('A' for Active; 'I' for Inactive)
REMARK    1  A    between atoms: C_1  and  C_2
REMARK    2  A    between atoms: C_2  and  C_4
REMARK    3  A    between atoms: C_6  and  O_7
REMARK    4  A    between atoms: O_7  and  C_8
REMARK    5  A    between atoms: C_8  and  C_9
REMARK    6  A    between atoms: C_9  and  N_10
REMARK    7  A    between atoms: C_11  and  C_12
REMARK    8  A    between atoms: C_14  and  C_15
REMARK    9  A    between atoms: C_16  and  C_17
REMARK                            x       y       z     vdW  Elec       q    Type
REMARK                         _______ _______ _______ _____ _____    ______ ____
ROOT
ATOM      1  C   UNL     1      27.236  22.334  17.029  0.00  0.00    +0.000 A 
ATOM      2  C   UNL     1      28.142  22.124  18.043  0.00  0.00    +0.000 A 
ATOM      3  C   UNL     1      29.427  22.670  18.028  0.00  0.00    +0.000 A 
ATOM      4  C   UNL     1      29.836  23.456  16.972  0.00  0.00    +0.000 A 
ATOM      5  C   UNL     1      31.192  24.058  16.913  0.00  0.00    +0.000 C 
ATOM      6  C   UNL     1      28.930  23.666  15.959  0.00  0.00    +0.000 A 
ATOM      7  C   UNL     1      27.642  23.117  15.976  0.00  0.00    +0.000 A 
ENDROOT
BRANCH   7   8
ATOM      8  C   UNL     1      26.782  23.491  14.868  0.00  0.00    +0.000 C 
ATOM      9  C   UNL     1      26.606  24.760  14.560  0.00  0.00    +0.000 C 
ATOM     10  C   UNL     1      27.288  25.817  15.342  0.00  0.00    +0.000 C 
ATOM     11  C   UNL     1      25.778  25.341  13.476  0.00  0.00    +0.000 C 
ATOM     12  O   UNL     1      26.095  26.534  13.139  0.00  0.00    +0.000 OA
ATOM     13  C   UNL     1      24.631  24.726  12.728  0.00  0.00    +0.000 C 
ATOM     14  O   UNL     1      24.966  23.417  12.295  0.00  0.00    +0.000 OA
ATOM     15  C   UNL     1      25.349  22.333  13.102  0.00  0.00    +0.000 C 
ATOM     16  C   UNL     1      26.110  22.368  14.180  0.00  0.00    +0.000 C 
ENDBRANCH   7   8
BRANCH   1  18
ATOM     17  C   UNL     1      24.717  22.563  17.234  0.00  0.00    +0.000 C 
ATOM     18  C   UNL     1      25.932  21.700  17.083  0.00  0.00    +0.000 C 
ATOM     19  O   UNL     1      25.722  20.470  17.014  0.00  0.00    +0.000 OA
ENDBRANCH   1  18
BRANCH   3  20
ATOM     20  O   UNL     1      30.328  22.451  19.053  0.00  0.00    +0.000 OA
BRANCH  20  21
ATOM     21  C   UNL     1      30.293  21.400  19.975  0.00  0.00    +0.000 C 
BRANCH  21  22
ATOM     22  C   UNL     1      30.240  20.030  19.333  0.00  0.00    +0.000 C 
BRANCH  22  23
ATOM     23  N   UNL     1      29.155  19.235  19.879  0.00  0.00    +0.000 NA
ATOM     24  H   UNL     1      28.384  19.808  20.234  0.00  0.00    +0.000 HD
ATOM     25  H   UNL     1      29.559  18.745  20.724  0.00  0.00    +0.000 HD
ENDBRANCH  22  23
ENDBRANCH  21  22
ENDBRANCH  20  21
ENDBRANCH   3  20
TORSDOF 6
ENDMDL
MODEL 2
REMARK VINA RESULT:    -6.752      3.355      6.012
REMARK INTER + INTRA:          -8.061
REMARK INTER:                  -9.317
REMARK INTRA:                   1.257
REMARK UNBOUND:                 0.862
REMARK  Name = 
REMARK  9 active torsions:
REMARK  status: ('A' for Active; 'I' for Inactive)
REMARK    1  A    between atoms: C_1  and  C_2
REMARK    2  A    between atoms: C_2  and  C_4
REMARK    3  A    between atoms: C_6  and  O_7
REMARK    4  A    between atoms: O_7  and  C_8
REMARK    5  A    between atoms: C_8  and  C_9
REMARK    6  A    between atoms: C_9  and  N_10
REMARK    7  A    between atoms: C_11  and  C_12
REMARK    8  A    between atoms: C_14  and  C_15
REMARK    9  A    between atoms: C_16  and  C_17
REMARK                            x       y       z     vdW  Elec       q    Type
REMARK                         _______ _______ _______ _____ _____    ______ ____
ROOT
ATOM      1  C   UNL     1      26.387  24.495  13.350  0.00  0.00    +0.000 A 
ATOM      2  C   UNL     1      27.206  25.346  12.644  0.00  0.00    +0.000 A 
ATOM      3  C   UNL     1      27.996  26.316  13.265  0.00  0.00    +0.000 A 
ATOM      4  C   UNL     1      27.978  26.452  14.637  0.00  0.00    +0.000 A 
ATOM      5  C   UNL     1      28.802  27.468  15.340  0.00  0.00    +0.000 C 
ATOM      6  C   UNL     1      27.160  25.602  15.341  0.00  0.00    +0.000 A 
ATOM      7  C   UNL     1      26.369  24.630  14.716  0.00  0.00    +0.000 A 
ENDROOT
BRANCH   7   8
ATOM      8  C   UNL     1      25.615  23.763  15.604  0.00  0.00    +0.000 C 
ATOM      9  C   UNL     1      26.237  22.888  16.367  0.00  0.00    +0.000 C 
ATOM     10  C   UNL     1      27.713  22.782  16.327  0.00  0.00    +0.000 C 
ATOM     11  C   UNL     1      25.653  21.924  17.332  0.00  0.00    +0.000 C 
ATOM     12  O   UNL     1      26.469  21.493  18.218  0.00  0.00    +0.000 OA
ATOM     13  C   UNL     1      24.252  21.392  17.407  0.00  0.00    +0.000 C 
ATOM     14  O   UNL     1      23.313  22.452  17.310  0.00  0.00    +0.000 OA
ATOM     15  C   UNL     1      23.179  23.365  16.250  0.00  0.00    +0.000 C 
ATOM     16  C   UNL     1      24.145  23.912  15.537  0.00  0.00    +0.000 C 
ENDBRANCH   7   8
BRANCH   1  18
ATOM     17  C   UNL     1      24.705  24.027  11.508  0.00  0.00    +0.000 C 
ATOM     18  C   UNL     1      25.557  23.540  12.640  0.00  0.00    +0.000 C 
ATOM     19  O   UNL     1      25.483  22.317  12.890  0.00  0.00    +0.000 OA
ENDBRANCH   1  18
BRANCH   3  20
ATOM     20  O   UNL     1      28.815  27.165  12.545  0.00  0.00    +0.000 OA
BRANCH  20  21
ATOM     21  C   UNL     1      29.787  28.022  13.073  0.00  0.00    +0.000 C 
BRANCH  21  22
ATOM     22  C   UNL     1      30.860  28.410  12.080  0.00  0.00    +0.000 C 
BRANCH  22  23
ATOM     23  N   UNL     1      32.178  28.024  12.551  0.00  0.00    +0.000 NA
ATOM     24  H   UNL     1      32.928  28.587  12.138  0.00  0.00    +0.000 HD
ATOM     25  H   UNL     1      32.330  27.041  12.196  0.00  0.00    +0.000 HD
ENDBRANCH  22  23
ENDBRANCH  21  22
ENDBRANCH  20  21
ENDBRANCH   3  20
TORSDOF 6
ENDMDL
MODEL 3
REMARK VINA RESULT:    -6.228      1.486      3.496
REMARK INTER + INTRA:          -7.368
REMARK INTER:                  -7.560
REMARK INTRA:                   0.192
REMARK UNBOUND:                 0.862
REMARK  Name = 
REMARK  9 active torsions:
REMARK  status: ('A' for Active; 'I' for Inactive)
REMARK    1  A    between atoms: C_1  and  C_2
REMARK    2  A    between atoms: C_2  and  C_4
REMARK    3  A    between atoms: C_6  and  O_7
REMARK    4  A    between atoms: O_7  and  C_8
REMARK    5  A    between atoms: C_8  and  C_9
REMARK    6  A    between atoms: C_9  and  N_10
REMARK    7  A    between atoms: C_11  and  C_12
REMARK    8  A    between atoms: C_14  and  C_15
REMARK    9  A    between atoms: C_16  and  C_17
REMARK                            x       y       z     vdW  Elec       q    Type
REMARK                         _______ _______ _______ _____ _____    ______ ____
ROOT
ATOM      1  C   UNL     1      28.320  22.870  16.522  0.00  0.00    +0.000 A 
ATOM      2  C   UNL     1      28.397  21.934  17.528  0.00  0.00    +0.000 A 
ATOM      3  C   UNL     1      27.267  21.313  18.064  0.00  0.00    +0.000 A 
ATOM      4  C   UNL     1      26.011  21.627  17.590  0.00  0.00    +0.000 A 
ATOM      5  C   UNL     1      24.782  20.992  18.130  0.00  0.00    +0.000 C 
ATOM      6  C   UNL     1      25.935  22.562  16.587  0.00  0.00    +0.000 A 
ATOM      7  C   UNL     1      27.069  23.184  16.050  0.00  0.00    +0.000 A 
ENDROOT
BRANCH   7   8
ATOM      8  C   UNL     1      26.827  24.095  14.946  0.00  0.00    +0.000 C 
ATOM      9  C   UNL     1      26.243  23.669  13.846  0.00  0.00    +0.000 C 
ATOM     10  C   UNL     1      25.825  22.253  13.726  0.00  0.00    +0.000 C 
ATOM     11  C   UNL     1      25.909  24.435  12.620  0.00  0.00    +0.000 C 
ATOM     12  O   UNL     1      25.002  23.907  11.888  0.00  0.00    +0.000 OA
ATOM     13  C   UNL     1      26.484  25.731  12.128  0.00  0.00    +0.000 C 
ATOM     14  O   UNL     1      26.525  26.685  13.177  0.00  0.00    +0.000 OA
ATOM     15  C   UNL     1      27.197  26.562  14.405  0.00  0.00    +0.000 C 
ATOM     16  C   UNL     1      27.322  25.475  15.143  0.00  0.00    +0.000 C 
ENDBRANCH   7   8
BRANCH   1  18
ATOM     17  C   UNL     1      30.387  24.257  17.017  0.00  0.00    +0.000 C 
ATOM     18  C   UNL     1      29.529  23.512  16.040  0.00  0.00    +0.000 C 
ATOM     19  O   UNL     1      29.933  23.502  14.858  0.00  0.00    +0.000 OA
ENDBRANCH   1  18
BRANCH   3  20
ATOM     20  O   UNL     1      27.357  20.373  19.073  0.00  0.00    +0.000 OA
BRANCH  20  21
ATOM     21  C   UNL     1      28.400  20.251  19.998  0.00  0.00    +0.000 C 
BRANCH  21  22
ATOM     22  C   UNL     1      29.265  19.028  19.781  0.00  0.00    +0.000 C 
BRANCH  22  23
ATOM     23  N   UNL     1      30.340  19.304  18.845  0.00  0.00    +0.000 NA
ATOM     24  H   UNL     1      31.231  18.885  19.130  0.00  0.00    +0.000 HD
ATOM     25  H   UNL     1      30.491  20.349  18.885  0.00  0.00    +0.000 HD
ENDBRANCH  22  23
ENDBRANCH  21  22
ENDBRANCH  20  21
ENDBRANCH   3  20
TORSDOF 6
ENDMDL
MODEL 4
REMARK VINA RESULT:    -5.944      2.728      6.158
REMARK INTER + INTRA:          -6.993
REMARK INTER:                  -7.902
REMARK INTRA:                   0.909
REMARK UNBOUND:                 0.862
REMARK  Name = 
REMARK  9 active torsions:
REMARK  status: ('A' for Active; 'I' for Inactive)
REMARK    1  A    between atoms: C_1  and  C_2
REMARK    2  A    between atoms: C_2  and  C_4
REMARK    3  A    between atoms: C_6  and  O_7
REMARK    4  A    between atoms: O_7  and  C_8
REMARK    5  A    between atoms: C_8  and  C_9
REMARK    6  A    between atoms: C_9  and  N_10
REMARK    7  A    between atoms: C_11  and  C_12
REMARK    8  A    between atoms: C_14  and  C_15
REMARK    9  A    between atoms: C_16  and  C_17
REMARK                            x       y       z     vdW  Elec       q    Type
REMARK                         _______ _______ _______ _____ _____    ______ ____
ROOT
ATOM      1  C   UNL     1      25.770  23.841  15.754  0.00  0.00    +0.000 A 
ATOM      2  C   UNL     1      25.354  24.643  14.716  0.00  0.00    +0.000 A 
ATOM      3  C   UNL     1      26.185  24.975  13.644  0.00  0.00    +0.000 A 
ATOM      4  C   UNL     1      27.477  24.496  13.592  0.00  0.00    +0.000 A 
ATOM      5  C   UNL     1      28.396  24.822  12.472  0.00  0.00    +0.000 C 
ATOM      6  C   UNL     1      27.891  23.696  14.629  0.00  0.00    +0.000 A 
ATOM      7  C   UNL     1      27.057  23.364  15.703  0.00  0.00    +0.000 A 
ENDROOT
BRANCH   7   8
ATOM      8  C   UNL     1      27.619  22.450  16.682  0.00  0.00    +0.000 C 
ATOM      9  C   UNL     1      28.803  22.685  17.209  0.00  0.00    +0.000 C 
ATOM     10  C   UNL     1      29.571  23.887  16.808  0.00  0.00    +0.000 C 
ATOM     11  C   UNL     1      29.543  21.884  18.214  0.00  0.00    +0.000 C 
ATOM     12  O   UNL     1      30.453  22.524  18.846  0.00  0.00    +0.000 OA
ATOM     13  C   UNL     1      29.369  20.440  18.587  0.00  0.00    +0.000 C 
ATOM     14  O   UNL     1      27.998  20.142  18.793  0.00  0.00    +0.000 OA
ATOM     15  C   UNL     1      26.953  20.290  17.865  0.00  0.00    +0.000 C 
ATOM     16  C   UNL     1      26.798  21.258  16.981  0.00  0.00    +0.000 C 
ENDBRANCH   7   8
BRANCH   1  18
ATOM     17  C   UNL     1      23.596  22.834  16.592  0.00  0.00    +0.000 C 
ATOM     18  C   UNL     1      24.872  23.572  16.862  0.00  0.00    +0.000 C 
ATOM     19  O   UNL     1      25.066  23.906  18.050  0.00  0.00    +0.000 OA
ENDBRANCH   1  18
BRANCH   3  20
ATOM     20  O   UNL     1      25.756  25.782  12.607  0.00  0.00    +0.000 OA
BRANCH  20  21
ATOM     21  C   UNL     1      25.447  25.364  11.308  0.00  0.00    +0.000 C 
BRANCH  21  22
ATOM     22  C   UNL     1      25.037  23.910  11.219  0.00  0.00    +0.000 C 
BRANCH  22  23
ATOM     23  N   UNL     1      23.700  23.707  11.748  0.00  0.00    +0.000 NA
ATOM     24  H   UNL     1      23.436  24.415  12.440  0.00  0.00    +0.000 HD
ATOM     25  H   UNL     1      23.738  22.793  12.275  0.00  0.00    +0.000 HD
ENDBRANCH  22  23
ENDBRANCH  21  22
ENDBRANCH  20  21
ENDBRANCH   3  20
TORSDOF 6
ENDMDL
MODEL 5
REMARK VINA RESULT:    -5.337      1.716      3.290
REMARK INTER + INTRA:          -6.191
REMARK INTER:                  -7.026
REMARK INTRA:                   0.835
REMARK UNBOUND:                 0.862
REMARK  Name = 
REMARK  9 active torsions:
REMARK  status: ('A' for Active; 'I' for Inactive)
REMARK    1  A    between atoms: C_1  and  C_2
REMARK    2  A    between atoms: C_2  and  C_4
REMARK    3  A    between atoms: C_6  and  O_7
REMARK    4  A    between atoms: O_7  and  C_8
REMARK    5  A    between atoms: C_8  and  C_9
REMARK    6  A    between atoms: C_9  and  N_10
REMARK    7  A    between atoms: C_11  and  C_12
REMARK    8  A    between atoms: C_14  and  C_15
REMARK    9  A    between atoms: C_16  and  C_17
REMARK                            x       y       z     vdW  Elec       q    Type
REMARK                         _______ _______ _______ _____ _____    ______ ____
ROOT
ATOM      1  C   UNL     1      27.548  23.984  15.987  0.00  0.00    +0.000 A 
ATOM      2  C   UNL     1      27.923  23.394  17.173  0.00  0.00    +0.000 A 
ATOM      3  C   UNL     1      27.513  22.109  17.535  0.00  0.00    +0.000 A 
ATOM      4  C   UNL     1      26.702  21.376  16.696  0.00  0.00    +0.000 A 
ATOM      5  C   UNL     1      26.242  20.006  17.039  0.00  0.00    +0.000 C 
ATOM      6  C   UNL     1      26.328  21.966  15.512  0.00  0.00    +0.000 A 
ATOM      7  C   UNL     1      26.740  23.254  15.150  0.00  0.00    +0.000 A 
ENDROOT
BRANCH   7   8
ATOM      8  C   UNL     1      26.318  23.707  13.837  0.00  0.00    +0.000 C 
ATOM      9  C   UNL     1      25.079  23.516  13.432  0.00  0.00    +0.000 C 
ATOM     10  C   UNL     1      24.104  22.837  14.317  0.00  0.00    +0.000 C 
ATOM     11  C   UNL     1      24.459  23.901  12.142  0.00  0.00    +0.000 C 
ATOM     12  O   UNL     1      23.182  23.972  12.161  0.00  0.00    +0.000 OA
ATOM     13  C   UNL     1      25.119  24.216  10.831  0.00  0.00    +0.000 C 
ATOM     14  O   UNL     1      26.197  25.118  11.022  0.00  0.00    +0.000 OA
ATOM     15  C   UNL     1      27.328  24.922  11.833  0.00  0.00    +0.000 C 
ATOM     16  C   UNL     1      27.375  24.330  13.012  0.00  0.00    +0.000 C 
ENDBRANCH   7   8
BRANCH   1  18
ATOM     17  C   UNL     1      26.935  26.421  15.637  0.00  0.00    +0.000 C 
ATOM     18  C   UNL     1      27.971  25.340  15.692  0.00  0.00    +0.000 C 
ATOM     19  O   UNL     1      29.147  25.701  15.473  0.00  0.00    +0.000 OA
ENDBRANCH   1  18
BRANCH   3  20
ATOM     20  O   UNL     1      27.897  21.527  18.728  0.00  0.00    +0.000 OA
BRANCH  20  21
ATOM     21  C   UNL     1      29.115  21.719  19.388  0.00  0.00    +0.000 C 
BRANCH  21  22
ATOM     22  C   UNL     1      29.914  20.447  19.574  0.00  0.00    +0.000 C 
BRANCH  22  23
ATOM     23  N   UNL     1      29.693  19.523  18.476  0.00  0.00    +0.000 NA
ATOM     24  H   UNL     1      29.692  18.544  18.777  0.00  0.00    +0.000 HD
ATOM     25  H   UNL     1      30.534  19.626  17.845  0.00  0.00    +0.000 HD
ENDBRANCH  22  23
ENDBRANCH  21  22
ENDBRANCH  20  21
ENDBRANCH   3  20
TORSDOF 6
ENDMDL
