MODEL 1
REMARK VINA RESULT:    -5.782      0.000      0.000
REMARK INTER + INTRA:          -7.484
REMARK INTER:                  -7.134
REMARK INTRA:                  -0.350
REMARK UNBOUND:                -0.350
REMARK  Name = 
REMARK  6 active torsions:
REMARK  status: ('A' for Active; 'I' for Inactive)
REMARK    1  A    between atoms: C_1  and  C_2
REMARK    2  A    between atoms: C_2  and  O_3
REMARK    3  A    between atoms: O_3  and  C_4
REMARK    4  A    between atoms: C_4  and  C_5
REMARK    5  A    between atoms: C_10  and  O_11
REMARK    6  A    between atoms: C_12  and  N_13
REMARK                            x       y       z     vdW  Elec       q    Type
REMARK                         _______ _______ _______ _____ _____    ______ ____
ROOT
ATOM      1  C   UNL     1      27.259  23.513  14.413  0.00  0.00    +0.000 C 
ATOM      2  C   UNL     1      27.052  24.621  13.377  0.00  0.00    +0.000 C 
ATOM      3  C   UNL     1      26.069  24.257  12.514  0.00  0.00    +0.000 C 
ATOM      4  O   UNL     1      26.458  24.957  11.517  0.00  0.00    +0.000 OA
ATOM      5  C   UNL     1      27.633  25.411  12.256  0.00  0.00    +0.000 C 
ATOM      6  C   UNL     1      25.334  22.969  12.875  0.00  0.00    +0.000 C 
ATOM      7  C   UNL     1      25.814  22.846  14.387  0.00  0.00    +0.000 C 
ENDROOT
BRANCH   7   8
ATOM      8  N   UNL     1      24.849  23.508  15.308  0.00  0.00    +0.000 NA
ATOM      9  H   UNL     1      24.507  22.827  15.983  0.00  0.00    +0.000 HD
ATOM     10  H   UNL     1      24.019  23.751  14.756  0.00  0.00    +0.000 HD
ENDBRANCH   7   8
BRANCH   6  11
ATOM     11  O   UNL     1      23.932  23.115  12.725  0.00  0.00    +0.000 OA
ATOM     12  H   UNL     1      23.796  23.952  12.252  0.00  0.00    +0.000 HD
ENDBRANCH   6  11
BRANCH   1  13
ATOM     13  C   UNL     1      27.776  23.904  15.785  0.00  0.00    +0.000 C 
BRANCH  13  14
ATOM     14  O   UNL     1      27.715  22.737  16.617  0.00  0.00    +0.000 OA
BRANCH  14  16
ATOM     15  C   UNL     1      29.959  23.500  16.849  0.00  0.00    +0.000 C 
ATOM     16  C   UNL     1      28.992  22.365  17.123  0.00  0.00    +0.000 C 
ENDBRANCH  14  16
ENDBRANCH  13  14
ENDBRANCH   1  13
TORSDOF 5
ENDMDL
MODEL 2
REMARK VINA RESULT:    -5.749      2.372      3.444
REMARK INTER + INTRA:          -7.443
REMARK INTER:                  -7.133
REMARK INTRA:                  -0.310
REMARK UNBOUND:                -0.350
REMARK  Name = 
REMARK  6 active torsions:
REMARK  status: ('A' for Active; 'I' for Inactive)
REMARK    1  A    between atoms: C_1  and  C_2
REMARK    2  A    between atoms: C_2  and  O_3
REMARK    3  A    between atoms: O_3  and  C_4
REMARK    4  A    between atoms: C_4  and  C_5
REMARK    5  A    between atoms: C_10  and  O_11
REMARK    6  A    between atoms: C_12  and  N_13
REMARK                            x       y       z     vdW  Elec       q    Type
REMARK                         _______ _______ _______ _____ _____    ______ ____
ROOT
ATOM      1  C   UNL     1      25.709  24.124  14.215  0.00  0.00    +0.000 C 
ATOM      2  C   UNL     1      25.906  24.083  12.697  0.00  0.00    +0.000 C 
ATOM      3  C   UNL     1      26.531  25.217  12.290  0.00  0.00    +0.000 C 
ATOM      4  O   UNL     1      26.082  25.231  11.092  0.00  0.00    +0.000 OA
ATOM      5  C   UNL     1      25.267  24.048  11.352  0.00  0.00    +0.000 C 
ATOM      6  C   UNL     1      27.011  26.132  13.413  0.00  0.00    +0.000 C 
ATOM      7  C   UNL     1      26.906  25.094  14.615  0.00  0.00    +0.000 C 
ENDROOT
BRANCH   7   8
ATOM      8  N   UNL     1      28.196  24.379  14.815  0.00  0.00    +0.000 NA
ATOM      9  H   UNL     1      28.220  23.984  15.754  0.00  0.00    +0.000 HD
ATOM     10  H   UNL     1      28.939  25.086  14.823  0.00  0.00    +0.000 HD
ENDBRANCH   7   8
BRANCH   6  11
ATOM     11  O   UNL     1      28.326  26.603  13.170  0.00  0.00    +0.000 OA
ATOM     12  H   UNL     1      28.648  26.116  12.394  0.00  0.00    +0.000 HD
ENDBRANCH   6  11
BRANCH   1  13
ATOM     13  C   UNL     1      25.655  22.807  14.965  0.00  0.00    +0.000 C 
BRANCH  13  14
ATOM     14  O   UNL     1      25.612  23.110  16.366  0.00  0.00    +0.000 OA
BRANCH  14  16
ATOM     15  C   UNL     1      23.241  23.091  16.594  0.00  0.00    +0.000 C 
ATOM     16  C   UNL     1      24.543  22.447  17.032  0.00  0.00    +0.000 C 
ENDBRANCH  14  16
ENDBRANCH  13  14
ENDBRANCH   1  13
TORSDOF 5
ENDMDL
MODEL 3
REMARK VINA RESULT:    -5.585      1.739      2.656
REMARK INTER + INTRA:          -7.241
REMARK INTER:                  -6.808
REMARK INTRA:                  -0.434
REMARK UNBOUND:                -0.350
REMARK  Name = 
REMARK  6 active torsions:
REMARK  status: ('A' for Active; 'I' for Inactive)
REMARK    1  A    between atoms: C_1  and  C_2
REMARK    2  A    between atoms: C_2  and  O_3
REMARK    3  A    between atoms: O_3  and  C_4
REMARK    4  A    between atoms: C_4  and  C_5
REMARK    5  A    between atoms: C_10  and  O_11
REMARK    6  A    between atoms: C_12  and  N_13
REMARK                            x       y       z     vdW  Elec       q    Type
REMARK                         _______ _______ _______ _____ _____    ______ ____
ROOT
ATOM      1  C   UNL     1      26.147  24.311  15.383  0.00  0.00    +0.000 C 
ATOM      2  C   UNL     1      26.186  23.707  13.976  0.00  0.00    +0.000 C 
ATOM      3  C   UNL     1      26.570  24.657  13.086  0.00  0.00    +0.000 C 
ATOM      4  O   UNL     1      26.001  24.155  12.056  0.00  0.00    +0.000 OA
ATOM      5  C   UNL     1      25.423  23.083  12.860  0.00  0.00    +0.000 C 
ATOM      6  C   UNL     1      27.009  25.983  13.701  0.00  0.00    +0.000 C 
ATOM      7  C   UNL     1      27.203  25.488  15.200  0.00  0.00    +0.000 C 
ENDROOT
BRANCH   7   8
ATOM      8  N   UNL     1      28.607  25.054  15.441  0.00  0.00    +0.000 NA
ATOM      9  H   UNL     1      28.677  24.642  16.369  0.00  0.00    +0.000 HD
ATOM     10  H   UNL     1      29.182  25.901  15.500  0.00  0.00    +0.000 HD
ENDBRANCH   7   8
BRANCH   6  11
ATOM     11  O   UNL     1      28.196  26.466  13.094  0.00  0.00    +0.000 OA
ATOM     12  H   UNL     1      28.463  25.792  12.449  0.00  0.00    +0.000 HD
ENDBRANCH   6  11
BRANCH   1  13
ATOM     13  C   UNL     1      26.388  23.391  16.564  0.00  0.00    +0.000 C 
BRANCH  13  14
ATOM     14  O   UNL     1      27.507  22.556  16.238  0.00  0.00    +0.000 OA
BRANCH  14  16
ATOM     15  C   UNL     1      29.565  22.223  17.391  0.00  0.00    +0.000 C 
ATOM     16  C   UNL     1      28.076  21.938  17.388  0.00  0.00    +0.000 C 
ENDBRANCH  14  16
ENDBRANCH  13  14
ENDBRANCH   1  13
TORSDOF 5
ENDMDL
MODEL 4
REMARK VINA RESULT:    -5.577      1.580      4.709
REMARK INTER + INTRA:          -7.231
REMARK INTER:                  -6.790
REMARK INTRA:                  -0.441
REMARK UNBOUND:                -0.350
REMARK  Name = 
REMARK  6 active torsions:
REMARK  status: ('A' for Active; 'I' for Inactive)
REMARK    1  A    between atoms: C_1  and  C_2
REMARK    2  A    between atoms: C_2  and  O_3
REMARK    3  A    between atoms: O_3  and  C_4
REMARK    4  A    between atoms: C_4  and  C_5
REMARK    5  A    between atoms: C_10  and  O_11
REMARK    6  A    between atoms: C_12  and  N_13
REMARK                            x       y       z     vdW  Elec       q    Type
REMARK                         _______ _______ _______ _____ _____    ______ ____
ROOT
ATOM      1  C   UNL     1      27.334  24.062  15.421  0.00  0.00    +0.000 C 
ATOM      2  C   UNL     1      28.615  23.372  15.898  0.00  0.00    +0.000 C 
ATOM      3  C   UNL     1      28.308  22.440  16.834  0.00  0.00    +0.000 C 
ATOM      4  O   UNL     1      29.432  22.444  17.445  0.00  0.00    +0.000 OA
ATOM      5  C   UNL     1      29.931  23.511  16.583  0.00  0.00    +0.000 C 
ATOM      6  C   UNL     1      26.815  22.203  17.047  0.00  0.00    +0.000 C 
ATOM      7  C   UNL     1      26.279  22.909  15.725  0.00  0.00    +0.000 C 
ENDROOT
BRANCH   7   8
ATOM      8  N   UNL     1      26.149  21.928  14.613  0.00  0.00    +0.000 NA
ATOM      9  H   UNL     1      25.966  21.004  14.999  0.00  0.00    +0.000 HD
ATOM     10  H   UNL     1      27.073  21.838  14.177  0.00  0.00    +0.000 HD
ENDBRANCH   7   8
BRANCH   6  11
ATOM     11  O   UNL     1      26.517  20.819  17.124  0.00  0.00    +0.000 OA
ATOM     12  H   UNL     1      25.855  20.647  16.435  0.00  0.00    +0.000 HD
ENDBRANCH   6  11
BRANCH   1  13
ATOM     13  C   UNL     1      27.304  24.622  14.012  0.00  0.00    +0.000 C 
BRANCH  13  14
ATOM     14  O   UNL     1      25.930  24.835  13.662  0.00  0.00    +0.000 OA
BRANCH  14  16
ATOM     15  C   UNL     1      24.334  23.911  12.154  0.00  0.00    +0.000 C 
ATOM     16  C   UNL     1      25.679  24.601  12.281  0.00  0.00    +0.000 C 
ENDBRANCH  14  16
ENDBRANCH  13  14
ENDBRANCH   1  13
TORSDOF 5
ENDMDL
MODEL 5
REMARK VINA RESULT:    -5.526      1.890      2.926
REMARK INTER + INTRA:          -7.168
REMARK INTER:                  -6.727
REMARK INTRA:                  -0.442
REMARK UNBOUND:                -0.350
REMARK  Name = 
REMARK  6 active torsions:
REMARK  status: ('A' for Active; 'I' for Inactive)
REMARK    1  A    between atoms: C_1  and  C_2
REMARK    2  A    between atoms: C_2  and  O_3
REMARK    3  A    between atoms: O_3  and  C_4
REMARK    4  A    between atoms: C_4  and  C_5
REMARK    5  A    between atoms: C_10  and  O_11
REMARK    6  A    between atoms: C_12  and  N_13
REMARK                            x       y       z     vdW  Elec       q    Type
REMARK                         _______ _______ _______ _____ _____    ______ ____
ROOT
ATOM      1  C   UNL     1      26.473  24.918  15.182  0.00  0.00    +0.000 C 
ATOM      2  C   UNL     1      25.625  23.854  15.885  0.00  0.00    +0.000 C 
ATOM      3  C   UNL     1      24.536  23.568  15.127  0.00  0.00    +0.000 C 
ATOM      4  O   UNL     1      23.773  23.179  16.077  0.00  0.00    +0.000 OA
ATOM      5  C   UNL     1      24.796  23.496  17.069  0.00  0.00    +0.000 C 
ATOM      6  C   UNL     1      24.515  24.223  13.749  0.00  0.00    +0.000 C 
ATOM      7  C   UNL     1      26.047  24.646  13.672  0.00  0.00    +0.000 C 
ENDROOT
BRANCH   7   8
ATOM      8  N   UNL     1      26.861  23.585  13.018  0.00  0.00    +0.000 NA
ATOM      9  H   UNL     1      26.406  23.298  12.153  0.00  0.00    +0.000 HD
ATOM     10  H   UNL     1      26.812  22.752  13.614  0.00  0.00    +0.000 HD
ENDBRANCH   7   8
BRANCH   6  11
ATOM     11  O   UNL     1      24.119  23.303  12.745  0.00  0.00    +0.000 OA
ATOM     12  H   UNL     1      24.935  22.886  12.424  0.00  0.00    +0.000 HD
ENDBRANCH   6  11
BRANCH   1  13
ATOM     13  C   UNL     1      27.966  24.935  15.448  0.00  0.00    +0.000 C 
BRANCH  13  14
ATOM     14  O   UNL     1      28.379  23.581  15.675  0.00  0.00    +0.000 OA
BRANCH  14  16
ATOM     15  C   UNL     1      29.582  22.220  17.216  0.00  0.00    +0.000 C 
ATOM     16  C   UNL     1      29.599  23.500  16.403  0.00  0.00    +0.000 C 
ENDBRANCH  14  16
ENDBRANCH  13  14
ENDBRANCH   1  13
TORSDOF 5
ENDMDL
MODEL 6
REMARK VINA RESULT:    -5.469      2.146      4.567
REMARK INTER + INTRA:          -7.098
REMARK INTER:                  -6.654
REMARK INTRA:                  -0.443
REMARK UNBOUND:                -0.350
REMARK  Name = 
REMARK  6 active torsions:
REMARK  status: ('A' for Active; 'I' for Inactive)
REMARK    1  A    between atoms: C_1  and  C_2
REMARK    2  A    between atoms: C_2  and  O_3
REMARK    3  A    between atoms: O_3  and  C_4
REMARK    4  A    between atoms: C_4  and  C_5
REMARK    5  A    between atoms: C_10  and  O_11
REMARK    6  A    between atoms: C_12  and  N_13
REMARK                            x       y       z     vdW  Elec       q    Type
REMARK                         _______ _______ _______ _____ _____    ______ ____
ROOT
ATOM      1  C   UNL     1      26.833  23.791  15.835  0.00  0.00    +0.000 C 
ATOM      2  C   UNL     1      26.862  22.448  16.569  0.00  0.00    +0.000 C 
ATOM      3  C   UNL     1      25.702  22.279  17.252  0.00  0.00    +0.000 C 
ATOM      4  O   UNL     1      26.157  21.495  18.156  0.00  0.00    +0.000 OA
ATOM      5  C   UNL     1      27.508  21.607  17.616  0.00  0.00    +0.000 C 
ATOM      6  C   UNL     1      24.638  23.342  16.996  0.00  0.00    +0.000 C 
ATOM      7  C   UNL     1      25.260  23.977  15.676  0.00  0.00    +0.000 C 
ENDROOT
BRANCH   7   8
ATOM      8  N   UNL     1      24.714  23.315  14.459  0.00  0.00    +0.000 NA
ATOM      9  H   UNL     1      23.758  23.016  14.639  0.00  0.00    +0.000 HD
ATOM     10  H   UNL     1      25.230  22.438  14.332  0.00  0.00    +0.000 HD
ENDBRANCH   7   8
BRANCH   6  11
ATOM     11  O   UNL     1      23.359  22.759  16.809  0.00  0.00    +0.000 OA
ATOM     12  H   UNL     1      23.189  22.221  17.599  0.00  0.00    +0.000 HD
ENDBRANCH   6  11
BRANCH   1  13
ATOM     13  C   UNL     1      27.641  23.928  14.559  0.00  0.00    +0.000 C 
BRANCH  13  14
ATOM     14  O   UNL     1      27.144  25.073  13.854  0.00  0.00    +0.000 OA
BRANCH  14  16
ATOM     15  C   UNL     1      26.238  25.052  11.651  0.00  0.00    +0.000 C 
ATOM     16  C   UNL     1      27.509  25.065  12.479  0.00  0.00    +0.000 C 
ENDBRANCH  14  16
ENDBRANCH  13  14
ENDBRANCH   1  13
TORSDOF 5
ENDMDL
MODEL 7
REMARK VINA RESULT:    -5.338      2.392      3.149
REMARK INTER + INTRA:          -6.936
REMARK INTER:                  -6.476
REMARK INTRA:                  -0.460
REMARK UNBOUND:                -0.350
REMARK  Name = 
REMARK  6 active torsions:
REMARK  status: ('A' for Active; 'I' for Inactive)
REMARK    1  A    between atoms: C_1  and  C_2
REMARK    2  A    between atoms: C_2  and  O_3
REMARK    3  A    between atoms: O_3  and  C_4
REMARK    4  A    between atoms: C_4  and  C_5
REMARK    5  A    between atoms: C_10  and  O_11
REMARK    6  A    between atoms: C_12  and  N_13
REMARK                            x       y       z     vdW  Elec       q    Type
REMARK                         _______ _______ _______ _____ _____    ______ ____
ROOT
ATOM      1  C   UNL     1      26.233  23.234  14.045  0.00  0.00    +0.000 C 
ATOM      2  C   UNL     1      26.369  24.723  14.374  0.00  0.00    +0.000 C 
ATOM      3  C   UNL     1      26.564  25.425  13.229  0.00  0.00    +0.000 C 
ATOM      4  O   UNL     1      27.187  26.414  13.748  0.00  0.00    +0.000 OA
ATOM      5  C   UNL     1      27.150  25.786  15.065  0.00  0.00    +0.000 C 
ATOM      6  C   UNL     1      26.438  24.614  11.942  0.00  0.00    +0.000 C 
ATOM      7  C   UNL     1      25.706  23.336  12.546  0.00  0.00    +0.000 C 
ENDROOT
BRANCH   7   8
ATOM      8  N   UNL     1      24.227  23.477  12.456  0.00  0.00    +0.000 NA
ATOM      9  H   UNL     1      23.973  23.764  11.512  0.00  0.00    +0.000 HD
ATOM     10  H   UNL     1      23.960  24.276  13.040  0.00  0.00    +0.000 HD
ENDBRANCH   7   8
BRANCH   6  11
ATOM     11  O   UNL     1      25.677  25.307  10.967  0.00  0.00    +0.000 OA
ATOM     12  H   UNL     1      24.754  25.043  11.106  0.00  0.00    +0.000 HD
ENDBRANCH   6  11
BRANCH   1  13
ATOM     13  C   UNL     1      25.403  22.368  14.974  0.00  0.00    +0.000 C 
BRANCH  13  14
ATOM     14  O   UNL     1      24.183  23.071  15.243  0.00  0.00    +0.000 OA
BRANCH  14  16
ATOM     15  C   UNL     1      24.694  22.031  17.324  0.00  0.00    +0.000 C 
ATOM     16  C   UNL     1      23.865  23.095  16.630  0.00  0.00    +0.000 C 
ENDBRANCH  14  16
ENDBRANCH  13  14
ENDBRANCH   1  13
TORSDOF 5
ENDMDL
MODEL 8
REMARK VINA RESULT:    -5.302      2.262      4.633
REMARK INTER + INTRA:          -6.891
REMARK INTER:                  -6.368
REMARK INTRA:                  -0.524
REMARK UNBOUND:                -0.350
REMARK  Name = 
REMARK  6 active torsions:
REMARK  status: ('A' for Active; 'I' for Inactive)
REMARK    1  A    between atoms: C_1  and  C_2
REMARK    2  A    between atoms: C_2  and  O_3
REMARK    3  A    between atoms: O_3  and  C_4
REMARK    4  A    between atoms: C_4  and  C_5
REMARK    5  A    between atoms: C_10  and  O_11
REMARK    6  A    between atoms: C_12  and  N_13
REMARK                            x       y       z     vdW  Elec       q    Type
REMARK                         _______ _______ _______ _____ _____    ______ ____
ROOT
ATOM      1  C   UNL     1      25.455  22.717  14.459  0.00  0.00    +0.000 C 
ATOM      2  C   UNL     1      24.471  23.229  15.515  0.00  0.00    +0.000 C 
ATOM      3  C   UNL     1      24.718  22.617  16.700  0.00  0.00    +0.000 C 
ATOM      4  O   UNL     1      23.540  22.724  17.188  0.00  0.00    +0.000 OA
ATOM      5  C   UNL     1      23.052  23.336  15.956  0.00  0.00    +0.000 C 
ATOM      6  C   UNL     1      25.964  21.737  16.728  0.00  0.00    +0.000 C 
ATOM      7  C   UNL     1      26.659  22.281  15.404  0.00  0.00    +0.000 C 
ENDROOT
BRANCH   7   8
ATOM      8  N   UNL     1      27.593  23.398  15.714  0.00  0.00    +0.000 NA
ATOM      9  H   UNL     1      28.548  23.046  15.723  0.00  0.00    +0.000 HD
ATOM     10  H   UNL     1      27.421  23.680  16.685  0.00  0.00    +0.000 HD
ENDBRANCH   7   8
BRANCH   6  11
ATOM     11  O   UNL     1      26.721  21.951  17.908  0.00  0.00    +0.000 OA
ATOM     12  H   UNL     1      26.133  21.737  18.649  0.00  0.00    +0.000 HD
ENDBRANCH   6  11
BRANCH   1  13
ATOM     13  C   UNL     1      25.822  23.642  13.314  0.00  0.00    +0.000 C 
BRANCH  13  14
ATOM     14  O   UNL     1      25.647  24.989  13.775  0.00  0.00    +0.000 OA
BRANCH  14  16
ATOM     15  C   UNL     1      27.389  25.121  12.155  0.00  0.00    +0.000 C 
ATOM     16  C   UNL     1      26.562  25.893  13.166  0.00  0.00    +0.000 C 
ENDBRANCH  14  16
ENDBRANCH  13  14
ENDBRANCH   1  13
TORSDOF 5
ENDMDL
MODEL 9
REMARK VINA RESULT:    -5.281      1.827      2.576
REMARK INTER + INTRA:          -6.866
REMARK INTER:                  -6.676
REMARK INTRA:                  -0.190
REMARK UNBOUND:                -0.350
REMARK  Name = 
REMARK  6 active torsions:
REMARK  status: ('A' for Active; 'I' for Inactive)
REMARK    1  A    between atoms: C_1  and  C_2
REMARK    2  A    between atoms: C_2  and  O_3
REMARK    3  A    between atoms: O_3  and  C_4
REMARK    4  A    between atoms: C_4  and  C_5
REMARK    5  A    between atoms: C_10  and  O_11
REMARK    6  A    between atoms: C_12  and  N_13
REMARK                            x       y       z     vdW  Elec       q    Type
REMARK                         _______ _______ _______ _____ _____    ______ ____
ROOT
ATOM      1  C   UNL     1      26.200  22.613  15.838  0.00  0.00    +0.000 C 
ATOM      2  C   UNL     1      25.570  23.210  14.576  0.00  0.00    +0.000 C 
ATOM      3  C   UNL     1      24.218  23.163  14.678  0.00  0.00    +0.000 C 
ATOM      4  O   UNL     1      23.959  23.139  13.426  0.00  0.00    +0.000 OA
ATOM      5  C   UNL     1      25.382  23.107  13.102  0.00  0.00    +0.000 C 
ATOM      6  C   UNL     1      23.686  22.703  16.033  0.00  0.00    +0.000 C 
ATOM      7  C   UNL     1      25.023  22.878  16.877  0.00  0.00    +0.000 C 
ENDROOT
BRANCH   7   8
ATOM      8  N   UNL     1      25.088  24.228  17.500  0.00  0.00    +0.000 NA
ATOM      9  H   UNL     1      24.796  24.164  18.473  0.00  0.00    +0.000 HD
ATOM     10  H   UNL     1      24.362  24.803  17.059  0.00  0.00    +0.000 HD
ENDBRANCH   7   8
BRANCH   6  11
ATOM     11  O   UNL     1      22.615  23.522  16.473  0.00  0.00    +0.000 OA
ATOM     12  H   UNL     1      21.860  23.311  15.900  0.00  0.00    +0.000 HD
ENDBRANCH   6  11
BRANCH   1  13
ATOM     13  C   UNL     1      27.570  23.110  16.258  0.00  0.00    +0.000 C 
BRANCH  13  14
ATOM     14  O   UNL     1      28.181  22.079  17.045  0.00  0.00    +0.000 OA
BRANCH  14  16
ATOM     15  C   UNL     1      29.932  23.635  16.618  0.00  0.00    +0.000 C 
ATOM     16  C   UNL     1      29.551  22.347  17.321  0.00  0.00    +0.000 C 
ENDBRANCH  14  16
ENDBRANCH  13  14
ENDBRANCH   1  13
TORSDOF 5
ENDMDL
